[root]
type=Root
children=system
eventq_index=0
full_system=true
sim_quantum=0
time_sync_enable=false
time_sync_period=100000000000
time_sync_spin_threshold=100000000

[system]
type=LinuxArmSystem
children=bridge clk_domain cpu0 cpu1 cpu2 cpu3 cpu4 cpu5 cpu6 cpu7 cpu8 cpu_clk_domain cpu_voltage_domain dvfs_handler intrctrl iobus iocache l2 mem_ctrls membus pci_ide realview terminal tol2bus vncserver voltage_domain
atags_addr=134217728
auto_reset_addr=false
boot_loader=./myFullSystemImages/fromGem5Website/binaries/boot.arm64
boot_osflags=earlyprintk=pl011,0x1c090000 console=ttyAMA0 lpj=19988480 norandmaps rw loglevel=8 mem=16GB root=/dev/sda1
cache_line_size=64
dtb_filename=/home/kuofeng/myGitRepos/gem5/tmp/output/system.dtb
early_kernel_symbols=false
enable_context_switch_stats_dump=false
eventq_index=0
exit_on_work_items=false
flags_addr=469827632
gic_cpu_addr=738205696
have_crypto=false
have_large_asid_64=false
have_lpae=true
have_lse=true
have_pan=true
have_security=false
have_sve=true
have_virtualization=false
highest_el_is_64=false
init_param=0
kernel=./myFullSystemImages/fromGem5Website/binaries/vmlinux.arm64
kernel_addr_check=true
kernel_extras=
kernel_extras_addrs=
load_addr_mask=0
load_offset=2147483648
m5ops_base=268500992
machine_type=DTOnly
mem_mode=atomic
mem_ranges=2147483648:19327352832
memories=system.mem_ctrls system.realview.bootmem
mmap_using_noreserve=false
multi_proc=true
multi_thread=false
num_work_ids=16
panic_on_oops=false
panic_on_panic=false
phys_addr_range_64=40
readfile=configs/boot/hack_back_ckpt.rcS
redirect_paths=
reset_addr=0
semihosting=Null
sve_vl=1
symbolfile=
thermal_components=
thermal_model=Null
work_begin_ckpt_count=0
work_begin_cpu_id_exit=-1
work_begin_exit_count=0
work_cpus_ckpt_count=0
work_end_ckpt_count=0
work_end_exit_count=0
work_item_id=-1
system_port=system.membus.slave[1]

[system.bridge]
type=Bridge
clk_domain=system.clk_domain
default_p_state=UNDEFINED
delay=50000
eventq_index=0
p_state_clk_gate_bins=20
p_state_clk_gate_max=1000000000000
p_state_clk_gate_min=1000
power_model=
ranges=201326592:536870912 788529152:2147483648
req_size=16
resp_size=16
master=system.iobus.slave[0]
slave=system.membus.master[0]

[system.clk_domain]
type=SrcClockDomain
clock=2000
domain_id=-1
eventq_index=0
init_perf_level=0
voltage_domain=system.voltage_domain

[system.cpu0]
type=AtomicSimpleCPU
children=dcache dtb icache interrupts isa itb tracer
branchPred=Null
checker=Null
clk_domain=system.cpu_clk_domain
cpu_id=0
default_p_state=UNDEFINED
do_checkpoint_insts=true
do_quiesce=true
do_statistics_insts=true
dtb=system.cpu0.dtb
eventq_index=0
function_trace=false
function_trace_start=0
interrupts=system.cpu0.interrupts
isa=system.cpu0.isa
itb=system.cpu0.itb
max_insts_all_threads=0
max_insts_any_thread=0
numThreads=1
p_state_clk_gate_bins=20
p_state_clk_gate_max=1000000000000
p_state_clk_gate_min=1000
power_gating_on_idle=false
power_model=
profile=0
progress_interval=0
pwr_gating_latency=300
simpoint_start_insts=
simulate_data_stalls=false
simulate_inst_stalls=false
socket_id=0
switched_out=false
syscallRetryLatency=10000
system=system
tracer=system.cpu0.tracer
wait_for_remote_gdb=false
width=1
workload=
dcache_port=system.cpu0.dcache.cpu_side
icache_port=system.cpu0.icache.cpu_side

[system.cpu0.dcache]
type=Cache
children=replacement_policy tags
addr_ranges=0:18446744073709551615
assoc=2
clk_domain=system.cpu_clk_domain
clusivity=mostly_incl
compressor=Null
data_latency=60
default_p_state=UNDEFINED
demand_mshr_reserve=1
eventq_index=0
is_read_only=false
max_miss_count=0
mshrs=4
p_state_clk_gate_bins=20
p_state_clk_gate_max=1000000000000
p_state_clk_gate_min=1000
power_model=
prefetch_on_access=false
prefetcher=Null
replacement_policy=system.cpu0.dcache.replacement_policy
response_latency=60
sequential_access=false
size=65536
system=system
tag_latency=60
tags=system.cpu0.dcache.tags
tgts_per_mshr=20
warmup_percentage=0
write_allocator=Null
write_buffers=8
writeback_clean=false
cpu_side=system.cpu0.dcache_port
mem_side=system.tol2bus.slave[1]

[system.cpu0.dcache.replacement_policy]
type=LRURP
eventq_index=0

[system.cpu0.dcache.tags]
type=BaseSetAssoc
children=indexing_policy
assoc=2
block_size=64
clk_domain=system.cpu_clk_domain
default_p_state=UNDEFINED
entry_size=64
eventq_index=0
indexing_policy=system.cpu0.dcache.tags.indexing_policy
p_state_clk_gate_bins=20
p_state_clk_gate_max=1000000000000
p_state_clk_gate_min=1000
power_model=
replacement_policy=system.cpu0.dcache.replacement_policy
sequential_access=false
size=65536
system=system
tag_latency=60
warmup_percentage=0

[system.cpu0.dcache.tags.indexing_policy]
type=SetAssociative
assoc=2
entry_size=64
eventq_index=0
size=65536

[system.cpu0.dtb]
type=ArmTLB
children=stage2_mmu walker
eventq_index=0
is_stage2=false
size=64
sys=system
walker=system.cpu0.dtb.walker

[system.cpu0.dtb.stage2_mmu]
type=ArmStage2MMU
children=stage2_tlb
eventq_index=0
stage2_tlb=system.cpu0.dtb.stage2_mmu.stage2_tlb
sys=system
tlb=system.cpu0.dtb

[system.cpu0.dtb.stage2_mmu.stage2_tlb]
type=ArmTLB
children=walker
eventq_index=0
is_stage2=true
size=32
sys=system
walker=system.cpu0.dtb.stage2_mmu.stage2_tlb.walker

[system.cpu0.dtb.stage2_mmu.stage2_tlb.walker]
type=ArmTableWalker
clk_domain=system.cpu_clk_domain
default_p_state=UNDEFINED
eventq_index=0
is_stage2=true
num_squash_per_cycle=2
p_state_clk_gate_bins=20
p_state_clk_gate_max=1000000000000
p_state_clk_gate_min=1000
power_model=
sys=system

[system.cpu0.dtb.walker]
type=ArmTableWalker
clk_domain=system.cpu_clk_domain
default_p_state=UNDEFINED
eventq_index=0
is_stage2=false
num_squash_per_cycle=2
p_state_clk_gate_bins=20
p_state_clk_gate_max=1000000000000
p_state_clk_gate_min=1000
power_model=
sys=system
port=system.tol2bus.slave[3]

[system.cpu0.icache]
type=Cache
children=replacement_policy tags
addr_ranges=0:18446744073709551615
assoc=2
clk_domain=system.cpu_clk_domain
clusivity=mostly_incl
compressor=Null
data_latency=60
default_p_state=UNDEFINED
demand_mshr_reserve=1
eventq_index=0
is_read_only=true
max_miss_count=0
mshrs=4
p_state_clk_gate_bins=20
p_state_clk_gate_max=1000000000000
p_state_clk_gate_min=1000
power_model=
prefetch_on_access=false
prefetcher=Null
replacement_policy=system.cpu0.icache.replacement_policy
response_latency=60
sequential_access=false
size=32768
system=system
tag_latency=60
tags=system.cpu0.icache.tags
tgts_per_mshr=20
warmup_percentage=0
write_allocator=Null
write_buffers=8
writeback_clean=true
cpu_side=system.cpu0.icache_port
mem_side=system.tol2bus.slave[0]

[system.cpu0.icache.replacement_policy]
type=LRURP
eventq_index=0

[system.cpu0.icache.tags]
type=BaseSetAssoc
children=indexing_policy
assoc=2
block_size=64
clk_domain=system.cpu_clk_domain
default_p_state=UNDEFINED
entry_size=64
eventq_index=0
indexing_policy=system.cpu0.icache.tags.indexing_policy
p_state_clk_gate_bins=20
p_state_clk_gate_max=1000000000000
p_state_clk_gate_min=1000
power_model=
replacement_policy=system.cpu0.icache.replacement_policy
sequential_access=false
size=32768
system=system
tag_latency=60
warmup_percentage=0

[system.cpu0.icache.tags.indexing_policy]
type=SetAssociative
assoc=2
entry_size=64
eventq_index=0
size=32768

[system.cpu0.interrupts]
type=ArmInterrupts
eventq_index=0

[system.cpu0.isa]
type=ArmISA
decoderFlavour=Generic
eventq_index=0
fpsid=1090793632
id_aa64afr0_el1=0
id_aa64afr1_el1=0
id_aa64dfr0_el1=1052678
id_aa64dfr1_el1=0
id_aa64isar0_el1=0
id_aa64isar1_el1=16777232
id_aa64mmfr0_el1=15728642
id_aa64mmfr1_el1=1052672
id_aa64mmfr2_el1=0
id_isar0=34607377
id_isar1=34677009
id_isar2=555950401
id_isar3=17899825
id_isar4=268501314
id_isar5=0
id_mmfr0=270536963
id_mmfr1=0
id_mmfr2=19070976
id_mmfr3=34611729
impdef_nop=false
midr=0
pmu=Null
sve_vl_se=1
system=system

[system.cpu0.itb]
type=ArmTLB
children=stage2_mmu walker
eventq_index=0
is_stage2=false
size=64
sys=system
walker=system.cpu0.itb.walker

[system.cpu0.itb.stage2_mmu]
type=ArmStage2MMU
children=stage2_tlb
eventq_index=0
stage2_tlb=system.cpu0.itb.stage2_mmu.stage2_tlb
sys=system
tlb=system.cpu0.itb

[system.cpu0.itb.stage2_mmu.stage2_tlb]
type=ArmTLB
children=walker
eventq_index=0
is_stage2=true
size=32
sys=system
walker=system.cpu0.itb.stage2_mmu.stage2_tlb.walker

[system.cpu0.itb.stage2_mmu.stage2_tlb.walker]
type=ArmTableWalker
clk_domain=system.cpu_clk_domain
default_p_state=UNDEFINED
eventq_index=0
is_stage2=true
num_squash_per_cycle=2
p_state_clk_gate_bins=20
p_state_clk_gate_max=1000000000000
p_state_clk_gate_min=1000
power_model=
sys=system

[system.cpu0.itb.walker]
type=ArmTableWalker
clk_domain=system.cpu_clk_domain
default_p_state=UNDEFINED
eventq_index=0
is_stage2=false
num_squash_per_cycle=2
p_state_clk_gate_bins=20
p_state_clk_gate_max=1000000000000
p_state_clk_gate_min=1000
power_model=
sys=system
port=system.tol2bus.slave[2]

[system.cpu0.tracer]
type=ExeTracer
eventq_index=0

[system.cpu1]
type=AtomicSimpleCPU
children=dcache dtb icache interrupts isa itb tracer
branchPred=Null
checker=Null
clk_domain=system.cpu_clk_domain
cpu_id=1
default_p_state=UNDEFINED
do_checkpoint_insts=true
do_quiesce=true
do_statistics_insts=true
dtb=system.cpu1.dtb
eventq_index=0
function_trace=false
function_trace_start=0
interrupts=system.cpu1.interrupts
isa=system.cpu1.isa
itb=system.cpu1.itb
max_insts_all_threads=0
max_insts_any_thread=0
numThreads=1
p_state_clk_gate_bins=20
p_state_clk_gate_max=1000000000000
p_state_clk_gate_min=1000
power_gating_on_idle=false
power_model=
profile=0
progress_interval=0
pwr_gating_latency=300
simpoint_start_insts=
simulate_data_stalls=false
simulate_inst_stalls=false
socket_id=0
switched_out=false
syscallRetryLatency=10000
system=system
tracer=system.cpu1.tracer
wait_for_remote_gdb=false
width=1
workload=
dcache_port=system.cpu1.dcache.cpu_side
icache_port=system.cpu1.icache.cpu_side

[system.cpu1.dcache]
type=Cache
children=replacement_policy tags
addr_ranges=0:18446744073709551615
assoc=2
clk_domain=system.cpu_clk_domain
clusivity=mostly_incl
compressor=Null
data_latency=60
default_p_state=UNDEFINED
demand_mshr_reserve=1
eventq_index=0
is_read_only=false
max_miss_count=0
mshrs=4
p_state_clk_gate_bins=20
p_state_clk_gate_max=1000000000000
p_state_clk_gate_min=1000
power_model=
prefetch_on_access=false
prefetcher=Null
replacement_policy=system.cpu1.dcache.replacement_policy
response_latency=60
sequential_access=false
size=65536
system=system
tag_latency=60
tags=system.cpu1.dcache.tags
tgts_per_mshr=20
warmup_percentage=0
write_allocator=Null
write_buffers=8
writeback_clean=false
cpu_side=system.cpu1.dcache_port
mem_side=system.tol2bus.slave[5]

[system.cpu1.dcache.replacement_policy]
type=LRURP
eventq_index=0

[system.cpu1.dcache.tags]
type=BaseSetAssoc
children=indexing_policy
assoc=2
block_size=64
clk_domain=system.cpu_clk_domain
default_p_state=UNDEFINED
entry_size=64
eventq_index=0
indexing_policy=system.cpu1.dcache.tags.indexing_policy
p_state_clk_gate_bins=20
p_state_clk_gate_max=1000000000000
p_state_clk_gate_min=1000
power_model=
replacement_policy=system.cpu1.dcache.replacement_policy
sequential_access=false
size=65536
system=system
tag_latency=60
warmup_percentage=0

[system.cpu1.dcache.tags.indexing_policy]
type=SetAssociative
assoc=2
entry_size=64
eventq_index=0
size=65536

[system.cpu1.dtb]
type=ArmTLB
children=stage2_mmu walker
eventq_index=0
is_stage2=false
size=64
sys=system
walker=system.cpu1.dtb.walker

[system.cpu1.dtb.stage2_mmu]
type=ArmStage2MMU
children=stage2_tlb
eventq_index=0
stage2_tlb=system.cpu1.dtb.stage2_mmu.stage2_tlb
sys=system
tlb=system.cpu1.dtb

[system.cpu1.dtb.stage2_mmu.stage2_tlb]
type=ArmTLB
children=walker
eventq_index=0
is_stage2=true
size=32
sys=system
walker=system.cpu1.dtb.stage2_mmu.stage2_tlb.walker

[system.cpu1.dtb.stage2_mmu.stage2_tlb.walker]
type=ArmTableWalker
clk_domain=system.cpu_clk_domain
default_p_state=UNDEFINED
eventq_index=0
is_stage2=true
num_squash_per_cycle=2
p_state_clk_gate_bins=20
p_state_clk_gate_max=1000000000000
p_state_clk_gate_min=1000
power_model=
sys=system

[system.cpu1.dtb.walker]
type=ArmTableWalker
clk_domain=system.cpu_clk_domain
default_p_state=UNDEFINED
eventq_index=0
is_stage2=false
num_squash_per_cycle=2
p_state_clk_gate_bins=20
p_state_clk_gate_max=1000000000000
p_state_clk_gate_min=1000
power_model=
sys=system
port=system.tol2bus.slave[7]

[system.cpu1.icache]
type=Cache
children=replacement_policy tags
addr_ranges=0:18446744073709551615
assoc=2
clk_domain=system.cpu_clk_domain
clusivity=mostly_incl
compressor=Null
data_latency=60
default_p_state=UNDEFINED
demand_mshr_reserve=1
eventq_index=0
is_read_only=true
max_miss_count=0
mshrs=4
p_state_clk_gate_bins=20
p_state_clk_gate_max=1000000000000
p_state_clk_gate_min=1000
power_model=
prefetch_on_access=false
prefetcher=Null
replacement_policy=system.cpu1.icache.replacement_policy
response_latency=60
sequential_access=false
size=32768
system=system
tag_latency=60
tags=system.cpu1.icache.tags
tgts_per_mshr=20
warmup_percentage=0
write_allocator=Null
write_buffers=8
writeback_clean=true
cpu_side=system.cpu1.icache_port
mem_side=system.tol2bus.slave[4]

[system.cpu1.icache.replacement_policy]
type=LRURP
eventq_index=0

[system.cpu1.icache.tags]
type=BaseSetAssoc
children=indexing_policy
assoc=2
block_size=64
clk_domain=system.cpu_clk_domain
default_p_state=UNDEFINED
entry_size=64
eventq_index=0
indexing_policy=system.cpu1.icache.tags.indexing_policy
p_state_clk_gate_bins=20
p_state_clk_gate_max=1000000000000
p_state_clk_gate_min=1000
power_model=
replacement_policy=system.cpu1.icache.replacement_policy
sequential_access=false
size=32768
system=system
tag_latency=60
warmup_percentage=0

[system.cpu1.icache.tags.indexing_policy]
type=SetAssociative
assoc=2
entry_size=64
eventq_index=0
size=32768

[system.cpu1.interrupts]
type=ArmInterrupts
eventq_index=0

[system.cpu1.isa]
type=ArmISA
decoderFlavour=Generic
eventq_index=0
fpsid=1090793632
id_aa64afr0_el1=0
id_aa64afr1_el1=0
id_aa64dfr0_el1=1052678
id_aa64dfr1_el1=0
id_aa64isar0_el1=0
id_aa64isar1_el1=16777232
id_aa64mmfr0_el1=15728642
id_aa64mmfr1_el1=1052672
id_aa64mmfr2_el1=0
id_isar0=34607377
id_isar1=34677009
id_isar2=555950401
id_isar3=17899825
id_isar4=268501314
id_isar5=0
id_mmfr0=270536963
id_mmfr1=0
id_mmfr2=19070976
id_mmfr3=34611729
impdef_nop=false
midr=0
pmu=Null
sve_vl_se=1
system=system

[system.cpu1.itb]
type=ArmTLB
children=stage2_mmu walker
eventq_index=0
is_stage2=false
size=64
sys=system
walker=system.cpu1.itb.walker

[system.cpu1.itb.stage2_mmu]
type=ArmStage2MMU
children=stage2_tlb
eventq_index=0
stage2_tlb=system.cpu1.itb.stage2_mmu.stage2_tlb
sys=system
tlb=system.cpu1.itb

[system.cpu1.itb.stage2_mmu.stage2_tlb]
type=ArmTLB
children=walker
eventq_index=0
is_stage2=true
size=32
sys=system
walker=system.cpu1.itb.stage2_mmu.stage2_tlb.walker

[system.cpu1.itb.stage2_mmu.stage2_tlb.walker]
type=ArmTableWalker
clk_domain=system.cpu_clk_domain
default_p_state=UNDEFINED
eventq_index=0
is_stage2=true
num_squash_per_cycle=2
p_state_clk_gate_bins=20
p_state_clk_gate_max=1000000000000
p_state_clk_gate_min=1000
power_model=
sys=system

[system.cpu1.itb.walker]
type=ArmTableWalker
clk_domain=system.cpu_clk_domain
default_p_state=UNDEFINED
eventq_index=0
is_stage2=false
num_squash_per_cycle=2
p_state_clk_gate_bins=20
p_state_clk_gate_max=1000000000000
p_state_clk_gate_min=1000
power_model=
sys=system
port=system.tol2bus.slave[6]

[system.cpu1.tracer]
type=ExeTracer
eventq_index=0

[system.cpu2]
type=AtomicSimpleCPU
children=dcache dtb icache interrupts isa itb tracer
branchPred=Null
checker=Null
clk_domain=system.cpu_clk_domain
cpu_id=2
default_p_state=UNDEFINED
do_checkpoint_insts=true
do_quiesce=true
do_statistics_insts=true
dtb=system.cpu2.dtb
eventq_index=0
function_trace=false
function_trace_start=0
interrupts=system.cpu2.interrupts
isa=system.cpu2.isa
itb=system.cpu2.itb
max_insts_all_threads=0
max_insts_any_thread=0
numThreads=1
p_state_clk_gate_bins=20
p_state_clk_gate_max=1000000000000
p_state_clk_gate_min=1000
power_gating_on_idle=false
power_model=
profile=0
progress_interval=0
pwr_gating_latency=300
simpoint_start_insts=
simulate_data_stalls=false
simulate_inst_stalls=false
socket_id=0
switched_out=false
syscallRetryLatency=10000
system=system
tracer=system.cpu2.tracer
wait_for_remote_gdb=false
width=1
workload=
dcache_port=system.cpu2.dcache.cpu_side
icache_port=system.cpu2.icache.cpu_side

[system.cpu2.dcache]
type=Cache
children=replacement_policy tags
addr_ranges=0:18446744073709551615
assoc=2
clk_domain=system.cpu_clk_domain
clusivity=mostly_incl
compressor=Null
data_latency=60
default_p_state=UNDEFINED
demand_mshr_reserve=1
eventq_index=0
is_read_only=false
max_miss_count=0
mshrs=4
p_state_clk_gate_bins=20
p_state_clk_gate_max=1000000000000
p_state_clk_gate_min=1000
power_model=
prefetch_on_access=false
prefetcher=Null
replacement_policy=system.cpu2.dcache.replacement_policy
response_latency=60
sequential_access=false
size=65536
system=system
tag_latency=60
tags=system.cpu2.dcache.tags
tgts_per_mshr=20
warmup_percentage=0
write_allocator=Null
write_buffers=8
writeback_clean=false
cpu_side=system.cpu2.dcache_port
mem_side=system.tol2bus.slave[9]

[system.cpu2.dcache.replacement_policy]
type=LRURP
eventq_index=0

[system.cpu2.dcache.tags]
type=BaseSetAssoc
children=indexing_policy
assoc=2
block_size=64
clk_domain=system.cpu_clk_domain
default_p_state=UNDEFINED
entry_size=64
eventq_index=0
indexing_policy=system.cpu2.dcache.tags.indexing_policy
p_state_clk_gate_bins=20
p_state_clk_gate_max=1000000000000
p_state_clk_gate_min=1000
power_model=
replacement_policy=system.cpu2.dcache.replacement_policy
sequential_access=false
size=65536
system=system
tag_latency=60
warmup_percentage=0

[system.cpu2.dcache.tags.indexing_policy]
type=SetAssociative
assoc=2
entry_size=64
eventq_index=0
size=65536

[system.cpu2.dtb]
type=ArmTLB
children=stage2_mmu walker
eventq_index=0
is_stage2=false
size=64
sys=system
walker=system.cpu2.dtb.walker

[system.cpu2.dtb.stage2_mmu]
type=ArmStage2MMU
children=stage2_tlb
eventq_index=0
stage2_tlb=system.cpu2.dtb.stage2_mmu.stage2_tlb
sys=system
tlb=system.cpu2.dtb

[system.cpu2.dtb.stage2_mmu.stage2_tlb]
type=ArmTLB
children=walker
eventq_index=0
is_stage2=true
size=32
sys=system
walker=system.cpu2.dtb.stage2_mmu.stage2_tlb.walker

[system.cpu2.dtb.stage2_mmu.stage2_tlb.walker]
type=ArmTableWalker
clk_domain=system.cpu_clk_domain
default_p_state=UNDEFINED
eventq_index=0
is_stage2=true
num_squash_per_cycle=2
p_state_clk_gate_bins=20
p_state_clk_gate_max=1000000000000
p_state_clk_gate_min=1000
power_model=
sys=system

[system.cpu2.dtb.walker]
type=ArmTableWalker
clk_domain=system.cpu_clk_domain
default_p_state=UNDEFINED
eventq_index=0
is_stage2=false
num_squash_per_cycle=2
p_state_clk_gate_bins=20
p_state_clk_gate_max=1000000000000
p_state_clk_gate_min=1000
power_model=
sys=system
port=system.tol2bus.slave[11]

[system.cpu2.icache]
type=Cache
children=replacement_policy tags
addr_ranges=0:18446744073709551615
assoc=2
clk_domain=system.cpu_clk_domain
clusivity=mostly_incl
compressor=Null
data_latency=60
default_p_state=UNDEFINED
demand_mshr_reserve=1
eventq_index=0
is_read_only=true
max_miss_count=0
mshrs=4
p_state_clk_gate_bins=20
p_state_clk_gate_max=1000000000000
p_state_clk_gate_min=1000
power_model=
prefetch_on_access=false
prefetcher=Null
replacement_policy=system.cpu2.icache.replacement_policy
response_latency=60
sequential_access=false
size=32768
system=system
tag_latency=60
tags=system.cpu2.icache.tags
tgts_per_mshr=20
warmup_percentage=0
write_allocator=Null
write_buffers=8
writeback_clean=true
cpu_side=system.cpu2.icache_port
mem_side=system.tol2bus.slave[8]

[system.cpu2.icache.replacement_policy]
type=LRURP
eventq_index=0

[system.cpu2.icache.tags]
type=BaseSetAssoc
children=indexing_policy
assoc=2
block_size=64
clk_domain=system.cpu_clk_domain
default_p_state=UNDEFINED
entry_size=64
eventq_index=0
indexing_policy=system.cpu2.icache.tags.indexing_policy
p_state_clk_gate_bins=20
p_state_clk_gate_max=1000000000000
p_state_clk_gate_min=1000
power_model=
replacement_policy=system.cpu2.icache.replacement_policy
sequential_access=false
size=32768
system=system
tag_latency=60
warmup_percentage=0

[system.cpu2.icache.tags.indexing_policy]
type=SetAssociative
assoc=2
entry_size=64
eventq_index=0
size=32768

[system.cpu2.interrupts]
type=ArmInterrupts
eventq_index=0

[system.cpu2.isa]
type=ArmISA
decoderFlavour=Generic
eventq_index=0
fpsid=1090793632
id_aa64afr0_el1=0
id_aa64afr1_el1=0
id_aa64dfr0_el1=1052678
id_aa64dfr1_el1=0
id_aa64isar0_el1=0
id_aa64isar1_el1=16777232
id_aa64mmfr0_el1=15728642
id_aa64mmfr1_el1=1052672
id_aa64mmfr2_el1=0
id_isar0=34607377
id_isar1=34677009
id_isar2=555950401
id_isar3=17899825
id_isar4=268501314
id_isar5=0
id_mmfr0=270536963
id_mmfr1=0
id_mmfr2=19070976
id_mmfr3=34611729
impdef_nop=false
midr=0
pmu=Null
sve_vl_se=1
system=system

[system.cpu2.itb]
type=ArmTLB
children=stage2_mmu walker
eventq_index=0
is_stage2=false
size=64
sys=system
walker=system.cpu2.itb.walker

[system.cpu2.itb.stage2_mmu]
type=ArmStage2MMU
children=stage2_tlb
eventq_index=0
stage2_tlb=system.cpu2.itb.stage2_mmu.stage2_tlb
sys=system
tlb=system.cpu2.itb

[system.cpu2.itb.stage2_mmu.stage2_tlb]
type=ArmTLB
children=walker
eventq_index=0
is_stage2=true
size=32
sys=system
walker=system.cpu2.itb.stage2_mmu.stage2_tlb.walker

[system.cpu2.itb.stage2_mmu.stage2_tlb.walker]
type=ArmTableWalker
clk_domain=system.cpu_clk_domain
default_p_state=UNDEFINED
eventq_index=0
is_stage2=true
num_squash_per_cycle=2
p_state_clk_gate_bins=20
p_state_clk_gate_max=1000000000000
p_state_clk_gate_min=1000
power_model=
sys=system

[system.cpu2.itb.walker]
type=ArmTableWalker
clk_domain=system.cpu_clk_domain
default_p_state=UNDEFINED
eventq_index=0
is_stage2=false
num_squash_per_cycle=2
p_state_clk_gate_bins=20
p_state_clk_gate_max=1000000000000
p_state_clk_gate_min=1000
power_model=
sys=system
port=system.tol2bus.slave[10]

[system.cpu2.tracer]
type=ExeTracer
eventq_index=0

[system.cpu3]
type=AtomicSimpleCPU
children=dcache dtb icache interrupts isa itb tracer
branchPred=Null
checker=Null
clk_domain=system.cpu_clk_domain
cpu_id=3
default_p_state=UNDEFINED
do_checkpoint_insts=true
do_quiesce=true
do_statistics_insts=true
dtb=system.cpu3.dtb
eventq_index=0
function_trace=false
function_trace_start=0
interrupts=system.cpu3.interrupts
isa=system.cpu3.isa
itb=system.cpu3.itb
max_insts_all_threads=0
max_insts_any_thread=0
numThreads=1
p_state_clk_gate_bins=20
p_state_clk_gate_max=1000000000000
p_state_clk_gate_min=1000
power_gating_on_idle=false
power_model=
profile=0
progress_interval=0
pwr_gating_latency=300
simpoint_start_insts=
simulate_data_stalls=false
simulate_inst_stalls=false
socket_id=0
switched_out=false
syscallRetryLatency=10000
system=system
tracer=system.cpu3.tracer
wait_for_remote_gdb=false
width=1
workload=
dcache_port=system.cpu3.dcache.cpu_side
icache_port=system.cpu3.icache.cpu_side

[system.cpu3.dcache]
type=Cache
children=replacement_policy tags
addr_ranges=0:18446744073709551615
assoc=2
clk_domain=system.cpu_clk_domain
clusivity=mostly_incl
compressor=Null
data_latency=60
default_p_state=UNDEFINED
demand_mshr_reserve=1
eventq_index=0
is_read_only=false
max_miss_count=0
mshrs=4
p_state_clk_gate_bins=20
p_state_clk_gate_max=1000000000000
p_state_clk_gate_min=1000
power_model=
prefetch_on_access=false
prefetcher=Null
replacement_policy=system.cpu3.dcache.replacement_policy
response_latency=60
sequential_access=false
size=65536
system=system
tag_latency=60
tags=system.cpu3.dcache.tags
tgts_per_mshr=20
warmup_percentage=0
write_allocator=Null
write_buffers=8
writeback_clean=false
cpu_side=system.cpu3.dcache_port
mem_side=system.tol2bus.slave[13]

[system.cpu3.dcache.replacement_policy]
type=LRURP
eventq_index=0

[system.cpu3.dcache.tags]
type=BaseSetAssoc
children=indexing_policy
assoc=2
block_size=64
clk_domain=system.cpu_clk_domain
default_p_state=UNDEFINED
entry_size=64
eventq_index=0
indexing_policy=system.cpu3.dcache.tags.indexing_policy
p_state_clk_gate_bins=20
p_state_clk_gate_max=1000000000000
p_state_clk_gate_min=1000
power_model=
replacement_policy=system.cpu3.dcache.replacement_policy
sequential_access=false
size=65536
system=system
tag_latency=60
warmup_percentage=0

[system.cpu3.dcache.tags.indexing_policy]
type=SetAssociative
assoc=2
entry_size=64
eventq_index=0
size=65536

[system.cpu3.dtb]
type=ArmTLB
children=stage2_mmu walker
eventq_index=0
is_stage2=false
size=64
sys=system
walker=system.cpu3.dtb.walker

[system.cpu3.dtb.stage2_mmu]
type=ArmStage2MMU
children=stage2_tlb
eventq_index=0
stage2_tlb=system.cpu3.dtb.stage2_mmu.stage2_tlb
sys=system
tlb=system.cpu3.dtb

[system.cpu3.dtb.stage2_mmu.stage2_tlb]
type=ArmTLB
children=walker
eventq_index=0
is_stage2=true
size=32
sys=system
walker=system.cpu3.dtb.stage2_mmu.stage2_tlb.walker

[system.cpu3.dtb.stage2_mmu.stage2_tlb.walker]
type=ArmTableWalker
clk_domain=system.cpu_clk_domain
default_p_state=UNDEFINED
eventq_index=0
is_stage2=true
num_squash_per_cycle=2
p_state_clk_gate_bins=20
p_state_clk_gate_max=1000000000000
p_state_clk_gate_min=1000
power_model=
sys=system

[system.cpu3.dtb.walker]
type=ArmTableWalker
clk_domain=system.cpu_clk_domain
default_p_state=UNDEFINED
eventq_index=0
is_stage2=false
num_squash_per_cycle=2
p_state_clk_gate_bins=20
p_state_clk_gate_max=1000000000000
p_state_clk_gate_min=1000
power_model=
sys=system
port=system.tol2bus.slave[15]

[system.cpu3.icache]
type=Cache
children=replacement_policy tags
addr_ranges=0:18446744073709551615
assoc=2
clk_domain=system.cpu_clk_domain
clusivity=mostly_incl
compressor=Null
data_latency=60
default_p_state=UNDEFINED
demand_mshr_reserve=1
eventq_index=0
is_read_only=true
max_miss_count=0
mshrs=4
p_state_clk_gate_bins=20
p_state_clk_gate_max=1000000000000
p_state_clk_gate_min=1000
power_model=
prefetch_on_access=false
prefetcher=Null
replacement_policy=system.cpu3.icache.replacement_policy
response_latency=60
sequential_access=false
size=32768
system=system
tag_latency=60
tags=system.cpu3.icache.tags
tgts_per_mshr=20
warmup_percentage=0
write_allocator=Null
write_buffers=8
writeback_clean=true
cpu_side=system.cpu3.icache_port
mem_side=system.tol2bus.slave[12]

[system.cpu3.icache.replacement_policy]
type=LRURP
eventq_index=0

[system.cpu3.icache.tags]
type=BaseSetAssoc
children=indexing_policy
assoc=2
block_size=64
clk_domain=system.cpu_clk_domain
default_p_state=UNDEFINED
entry_size=64
eventq_index=0
indexing_policy=system.cpu3.icache.tags.indexing_policy
p_state_clk_gate_bins=20
p_state_clk_gate_max=1000000000000
p_state_clk_gate_min=1000
power_model=
replacement_policy=system.cpu3.icache.replacement_policy
sequential_access=false
size=32768
system=system
tag_latency=60
warmup_percentage=0

[system.cpu3.icache.tags.indexing_policy]
type=SetAssociative
assoc=2
entry_size=64
eventq_index=0
size=32768

[system.cpu3.interrupts]
type=ArmInterrupts
eventq_index=0

[system.cpu3.isa]
type=ArmISA
decoderFlavour=Generic
eventq_index=0
fpsid=1090793632
id_aa64afr0_el1=0
id_aa64afr1_el1=0
id_aa64dfr0_el1=1052678
id_aa64dfr1_el1=0
id_aa64isar0_el1=0
id_aa64isar1_el1=16777232
id_aa64mmfr0_el1=15728642
id_aa64mmfr1_el1=1052672
id_aa64mmfr2_el1=0
id_isar0=34607377
id_isar1=34677009
id_isar2=555950401
id_isar3=17899825
id_isar4=268501314
id_isar5=0
id_mmfr0=270536963
id_mmfr1=0
id_mmfr2=19070976
id_mmfr3=34611729
impdef_nop=false
midr=0
pmu=Null
sve_vl_se=1
system=system

[system.cpu3.itb]
type=ArmTLB
children=stage2_mmu walker
eventq_index=0
is_stage2=false
size=64
sys=system
walker=system.cpu3.itb.walker

[system.cpu3.itb.stage2_mmu]
type=ArmStage2MMU
children=stage2_tlb
eventq_index=0
stage2_tlb=system.cpu3.itb.stage2_mmu.stage2_tlb
sys=system
tlb=system.cpu3.itb

[system.cpu3.itb.stage2_mmu.stage2_tlb]
type=ArmTLB
children=walker
eventq_index=0
is_stage2=true
size=32
sys=system
walker=system.cpu3.itb.stage2_mmu.stage2_tlb.walker

[system.cpu3.itb.stage2_mmu.stage2_tlb.walker]
type=ArmTableWalker
clk_domain=system.cpu_clk_domain
default_p_state=UNDEFINED
eventq_index=0
is_stage2=true
num_squash_per_cycle=2
p_state_clk_gate_bins=20
p_state_clk_gate_max=1000000000000
p_state_clk_gate_min=1000
power_model=
sys=system

[system.cpu3.itb.walker]
type=ArmTableWalker
clk_domain=system.cpu_clk_domain
default_p_state=UNDEFINED
eventq_index=0
is_stage2=false
num_squash_per_cycle=2
p_state_clk_gate_bins=20
p_state_clk_gate_max=1000000000000
p_state_clk_gate_min=1000
power_model=
sys=system
port=system.tol2bus.slave[14]

[system.cpu3.tracer]
type=ExeTracer
eventq_index=0

[system.cpu4]
type=AtomicSimpleCPU
children=dcache dtb icache interrupts isa itb tracer
branchPred=Null
checker=Null
clk_domain=system.cpu_clk_domain
cpu_id=4
default_p_state=UNDEFINED
do_checkpoint_insts=true
do_quiesce=true
do_statistics_insts=true
dtb=system.cpu4.dtb
eventq_index=0
function_trace=false
function_trace_start=0
interrupts=system.cpu4.interrupts
isa=system.cpu4.isa
itb=system.cpu4.itb
max_insts_all_threads=0
max_insts_any_thread=0
numThreads=1
p_state_clk_gate_bins=20
p_state_clk_gate_max=1000000000000
p_state_clk_gate_min=1000
power_gating_on_idle=false
power_model=
profile=0
progress_interval=0
pwr_gating_latency=300
simpoint_start_insts=
simulate_data_stalls=false
simulate_inst_stalls=false
socket_id=0
switched_out=false
syscallRetryLatency=10000
system=system
tracer=system.cpu4.tracer
wait_for_remote_gdb=false
width=1
workload=
dcache_port=system.cpu4.dcache.cpu_side
icache_port=system.cpu4.icache.cpu_side

[system.cpu4.dcache]
type=Cache
children=replacement_policy tags
addr_ranges=0:18446744073709551615
assoc=2
clk_domain=system.cpu_clk_domain
clusivity=mostly_incl
compressor=Null
data_latency=60
default_p_state=UNDEFINED
demand_mshr_reserve=1
eventq_index=0
is_read_only=false
max_miss_count=0
mshrs=4
p_state_clk_gate_bins=20
p_state_clk_gate_max=1000000000000
p_state_clk_gate_min=1000
power_model=
prefetch_on_access=false
prefetcher=Null
replacement_policy=system.cpu4.dcache.replacement_policy
response_latency=60
sequential_access=false
size=65536
system=system
tag_latency=60